data_nwchem_pspw

_audit_creation_date   Fri Oct 16 09:12:57 2015
_audit_creation_method    generated by PSPW module of NWChem


_cell_length_a            12.7002
_cell_length_b            12.7002
_cell_length_c            12.7002
_cell_angle_alpha         90.0000
_cell_angle_beta          90.0000
_cell_angle_gamma         90.0000

_symmetry_space_group_name_H-M     P1  

loop_
_atom_site_type_symbol
_atom_site_fract_x
_atom_site_fract_y
_atom_site_fract_z
O            -0.305705      0.093775     -0.004766
H            -0.232813      0.105560      0.010724
H            -0.340788      0.154617      0.020002
O            -0.084450      0.113760      0.033191
H            -0.050372      0.106149     -0.032733
H            -0.062608      0.055041      0.073694
data_nwchem_pspw

_audit_creation_date   Fri Oct 16 09:13:25 2015
_audit_creation_method    generated by PSPW module of NWChem


_cell_length_a            12.7002
_cell_length_b            12.7002
_cell_length_c            12.7002
_cell_angle_alpha         90.0000
_cell_angle_beta          90.0000
_cell_angle_gamma         90.0000

_symmetry_space_group_name_H-M     P1  

loop_
_atom_site_type_symbol
_atom_site_fract_x
_atom_site_fract_y
_atom_site_fract_z
O            -0.305705      0.093775     -0.004766
H            -0.232813      0.105560      0.010724
H            -0.340788      0.154617      0.020002
O            -0.084450      0.113760      0.033191
H            -0.050372      0.106149     -0.032733
H            -0.062608      0.055041      0.073694
data_nwchem_pspw

_audit_creation_date   Fri Oct 16 09:14:02 2015
_audit_creation_method    generated by PSPW module of NWChem


_cell_length_a            12.7002
_cell_length_b            12.7002
_cell_length_c            12.7002
_cell_angle_alpha         90.0000
_cell_angle_beta          90.0000
_cell_angle_gamma         90.0000

_symmetry_space_group_name_H-M     P1  

loop_
_atom_site_type_symbol
_atom_site_fract_x
_atom_site_fract_y
_atom_site_fract_z
O            -0.305705      0.093775     -0.004766
H            -0.232813      0.105560      0.010724
H            -0.340788      0.154617      0.020002
O            -0.084450      0.113760      0.033191
H            -0.050372      0.106149     -0.032733
H            -0.062608      0.055041      0.073694
data_nwchem_pspw

_audit_creation_date   Fri Oct 16 09:14:51 2015
_audit_creation_method    generated by PSPW module of NWChem


_cell_length_a            12.7002
_cell_length_b            12.7002
_cell_length_c            12.7002
_cell_angle_alpha         90.0000
_cell_angle_beta          90.0000
_cell_angle_gamma         90.0000

_symmetry_space_group_name_H-M     P1  

loop_
_atom_site_type_symbol
_atom_site_fract_x
_atom_site_fract_y
_atom_site_fract_z
O            -0.305705      0.093775     -0.004766
H            -0.232813      0.105560      0.010724
H            -0.340788      0.154617      0.020002
O            -0.084450      0.113760      0.033191
H            -0.050372      0.106149     -0.032733
H            -0.062608      0.055041      0.073694
data_nwchem_pspw

_audit_creation_date   Fri Oct 16 09:15:25 2015
_audit_creation_method    generated by PSPW module of NWChem


_cell_length_a            12.7002
_cell_length_b            12.7002
_cell_length_c            12.7002
_cell_angle_alpha         90.0000
_cell_angle_beta          90.0000
_cell_angle_gamma         90.0000

_symmetry_space_group_name_H-M     P1  

loop_
_atom_site_type_symbol
_atom_site_fract_x
_atom_site_fract_y
_atom_site_fract_z
O            -0.305703      0.093791     -0.004758
H            -0.232804      0.105558      0.010719
H            -0.340821      0.154614      0.020001
O            -0.084447      0.113735      0.033178
H            -0.050355      0.106160     -0.032738
H            -0.062605      0.055046      0.073710
data_nwchem_pspw

_audit_creation_date   Fri Oct 16 09:16:02 2015
_audit_creation_method    generated by PSPW module of NWChem


_cell_length_a            12.7002
_cell_length_b            12.7002
_cell_length_c            12.7002
_cell_angle_alpha         90.0000
_cell_angle_beta          90.0000
_cell_angle_gamma         90.0000

_symmetry_space_group_name_H-M     P1  

loop_
_atom_site_type_symbol
_atom_site_fract_x
_atom_site_fract_y
_atom_site_fract_z
O            -0.305697      0.093834     -0.004734
H            -0.232779      0.105551      0.010708
H            -0.340915      0.154605      0.019999
O            -0.084441      0.113663      0.033140
H            -0.050306      0.106192     -0.032755
H            -0.062598      0.055059      0.073754
data_nwchem_pspw

_audit_creation_date   Fri Oct 16 09:16:36 2015
_audit_creation_method    generated by PSPW module of NWChem


_cell_length_a            12.7002
_cell_length_b            12.7002
_cell_length_c            12.7002
_cell_angle_alpha         90.0000
_cell_angle_beta          90.0000
_cell_angle_gamma         90.0000

_symmetry_space_group_name_H-M     P1  

loop_
_atom_site_type_symbol
_atom_site_fract_x
_atom_site_fract_y
_atom_site_fract_z
O            -0.305705      0.093808     -0.004742
H            -0.232793      0.105555      0.010712
H            -0.340869      0.154613      0.019998
O            -0.084446      0.113701      0.033159
H            -0.050323      0.106176     -0.032743
H            -0.062600      0.055051      0.073728
data_nwchem_pspw

_audit_creation_date   Fri Oct 16 09:17:15 2015
_audit_creation_method    generated by PSPW module of NWChem


_cell_length_a            12.7002
_cell_length_b            12.7002
_cell_length_c            12.7002
_cell_angle_alpha         90.0000
_cell_angle_beta          90.0000
_cell_angle_gamma         90.0000

_symmetry_space_group_name_H-M     P1  

loop_
_atom_site_type_symbol
_atom_site_fract_x
_atom_site_fract_y
_atom_site_fract_z
O            -0.305721      0.093755     -0.004757
H            -0.232821      0.105563      0.010721
H            -0.340776      0.154630      0.019996
O            -0.084457      0.113777      0.033196
H            -0.050356      0.106144     -0.032721
H            -0.062604      0.055035      0.073677
data_nwchem_pspw

_audit_creation_date   Fri Oct 16 09:17:49 2015
_audit_creation_method    generated by PSPW module of NWChem


_cell_length_a            12.7002
_cell_length_b            12.7002
_cell_length_c            12.7002
_cell_angle_alpha         90.0000
_cell_angle_beta          90.0000
_cell_angle_gamma         90.0000

_symmetry_space_group_name_H-M     P1  

loop_
_atom_site_type_symbol
_atom_site_fract_x
_atom_site_fract_y
_atom_site_fract_z
O            -0.305720      0.093775     -0.004748
H            -0.232817      0.105562      0.010717
H            -0.340812      0.154624      0.019997
O            -0.084459      0.113740      0.033176
H            -0.050329      0.106158     -0.032725
H            -0.062598      0.055044      0.073695
data_nwchem_pspw

_audit_creation_date   Fri Oct 16 09:18:23 2015
_audit_creation_method    generated by PSPW module of NWChem


_cell_length_a            12.7002
_cell_length_b            12.7002
_cell_length_c            12.7002
_cell_angle_alpha         90.0000
_cell_angle_beta          90.0000
_cell_angle_gamma         90.0000

_symmetry_space_group_name_H-M     P1  

loop_
_atom_site_type_symbol
_atom_site_fract_x
_atom_site_fract_y
_atom_site_fract_z
O            -0.305719      0.093787     -0.004743
H            -0.232814      0.105561      0.010714
H            -0.340836      0.154621      0.019998
O            -0.084460      0.113717      0.033163
H            -0.050312      0.106167     -0.032727
H            -0.062594      0.055051      0.073707
data_nwchem_pspw

_audit_creation_date   Fri Oct 16 09:18:32 2015
_audit_creation_method    generated by PSPW module of NWChem


_cell_length_a            12.7002
_cell_length_b            12.7002
_cell_length_c            12.7002
_cell_angle_alpha         90.0000
_cell_angle_beta          90.0000
_cell_angle_gamma         90.0000

_symmetry_space_group_name_H-M     P1  

loop_
_atom_site_type_symbol
_atom_site_fract_x
_atom_site_fract_y
_atom_site_fract_z
O            -0.305719      0.093787     -0.004743
H            -0.232814      0.105561      0.010714
H            -0.340836      0.154621      0.019998
O            -0.084460      0.113717      0.033163
H            -0.050312      0.106167     -0.032727
H            -0.062594      0.055051      0.073707
data_nwchem_pspw

_audit_creation_date   Fri Oct 16 09:18:41 2015
_audit_creation_method    generated by PSPW module of NWChem


_cell_length_a            12.7002
_cell_length_b            12.7002
_cell_length_c            12.7002
_cell_angle_alpha         90.0000
_cell_angle_beta          90.0000
_cell_angle_gamma         90.0000

_symmetry_space_group_name_H-M     P1  

loop_
_atom_site_type_symbol
_atom_site_fract_x
_atom_site_fract_y
_atom_site_fract_z
O            -0.305719      0.093787     -0.004743
H            -0.232814      0.105561      0.010714
H            -0.340836      0.154621      0.019998
O            -0.084460      0.113717      0.033163
H            -0.050312      0.106167     -0.032727
H            -0.062594      0.055051      0.073707
